<?xml version="1.0" encoding="UTF-8"?>

<!-- generated on 2024-01-06 18:28:18.875734 by randomTrips.py v1.16.0-0000000000
<configuration>
    <end value="100"/>
    <length value="True"/>
    <net-file value="map.net.xml"/>
    <route-file value="map.rou.xml"/>
</configuration>
-->

<!-- generated on 2024-01-06 18:28:18 by Eclipse SUMO duarouter Version 1.16.0
<configuration xmlns:xsi="http://www.w3.org/2001/XMLSchema-instance" xsi:noNamespaceSchemaLocation="http://sumo.dlr.de/xsd/duarouterConfiguration.xsd">

    <input>
        <net-file value="map.net.xml"/>
        <route-files value="trips.trips.xml"/>
    </input>

    <output>
        <output-file value="map.rou.xml"/>
        <alternatives-output value="NUL"/>
    </output>

    <time>
        <begin value="0"/>
        <end value="100"/>
    </time>

    <report>
        <no-warnings value="true"/>
        <ignore-errors value="true"/>
        <no-step-log value="true"/>
    </report>

</configuration>
-->

<routes xmlns:xsi="http://www.w3.org/2001/XMLSchema-instance" xsi:noNamespaceSchemaLocation="http://sumo.dlr.de/xsd/routes_file.xsd">
    <vehicle id="2" depart="2.00">
        <route edges="311882380#2"/>
    </vehicle>
    <vehicle id="5" depart="5.00">
        <route edges="-222738849#2 -222738849#1 -222738849#0 -1212434935#3 -1212434935#2 -1212434935#1 -1212434935#0 1212434935#0 1212434935#1 1212434935#2 1212434935#3 222738849#0 222738849#1 222738849#2"/>
    </vehicle>
    <vehicle id="8" depart="8.00">
        <route edges="-222738849#2 -222738849#1 -222738849#0 -1212434935#3 -1212434935#2 -1212434935#1 -1212434935#0 1212434935#0 1212434935#1 1212434935#2 1212434935#3 222738849#0 222738849#1 222738849#2"/>
    </vehicle>
    <vehicle id="10" depart="10.00">
        <route edges="334816783#1 334816783#2 334816783#3 105497663#0 86979296#0 86979296#1 86979296#2 86979296#3 -311882380#4 -311882380#3 -311882380#2 -311882380#1 -311882380#0 311882380#0 311882380#1 311882380#2"/>
    </vehicle>
    <vehicle id="12" depart="12.00">
        <route edges="86979296#1 86979296#2 86979296#3 334816783#0 334816783#1 334816783#2 334816783#3 105497663#0 105497663#1 105497663#2"/>
    </vehicle>
    <vehicle id="13" depart="13.00">
        <route edges="-105497663#2 -105497663#1 86979296#0 86979296#1 86979296#2 86979296#3 -311882380#4 -311882380#3 -311882380#2"/>
    </vehicle>
    <vehicle id="15" depart="15.00">
        <route edges="334816783#1 334816783#2 334816783#3 105497663#0 86979296#0 86979296#1 86979296#2 86979296#3 -311882380#4 -311882380#3 -311882380#2 -311882380#1 -311882380#0 311882380#0 311882380#1 311882380#2"/>
    </vehicle>
    <vehicle id="17" depart="17.00">
        <route edges="-222738849#2 -222738849#1 -222738849#0 -1212434935#3 -1212434935#2 -1212434935#1 -1212434935#0 1212434935#0 1212434935#1 1212434935#2 1212434935#3 222738849#0 222738849#1 222738849#2"/>
    </vehicle>
    <vehicle id="23" depart="23.00">
        <route edges="-105497663#2 -105497663#1 105497663#1 105497663#2"/>
    </vehicle>
    <vehicle id="28" depart="28.00">
        <route edges="-105497663#2 -105497663#1 86979296#0 86979296#1 86979296#2 86979296#3 -311882380#4 -311882380#3 -311882380#2 -311882380#1 -311882380#0 311882380#0 311882380#1 311882380#2"/>
    </vehicle>
    <vehicle id="29" depart="29.00">
        <route edges="-105497663#2 -105497663#1 105497663#1 105497663#2"/>
    </vehicle>
    <vehicle id="32" depart="32.00">
        <route edges="334816783#1"/>
    </vehicle>
    <vehicle id="33" depart="33.00">
        <route edges="-222738849#2 -222738849#1 -222738849#0 -1212434935#3 -1212434935#2 -1212434935#1 -1212434935#0"/>
    </vehicle>
    <vehicle id="46" depart="46.00">
        <route edges="334816783#1 334816783#2 334816783#3 105497663#0 105497663#1 105497663#2"/>
    </vehicle>
    <vehicle id="47" depart="47.00">
        <route edges="-105497663#2 -105497663#1 105497663#1 105497663#2"/>
    </vehicle>
    <vehicle id="50" depart="50.00">
        <route edges="-105497663#2 -105497663#1 86979296#0 86979296#1 86979296#2 86979296#3 -311882380#4 -311882380#3 -311882380#2 -311882380#1 -311882380#0 311882380#0 311882380#1 311882380#2"/>
    </vehicle>
    <vehicle id="52" depart="52.00">
        <route edges="-222738849#2 -222738849#1 -222738849#0 -1212434935#3 -1212434935#2 -1212434935#1 -1212434935#0 1212434935#0 1212434935#1 1212434935#2 1212434935#3 222738849#0 222738849#1 222738849#2"/>
    </vehicle>
    <vehicle id="53" depart="53.00">
        <route edges="-105497663#2 -105497663#1 105497663#1 105497663#2"/>
    </vehicle>
    <vehicle id="56" depart="56.00">
        <route edges="1032545575#0"/>
    </vehicle>
    <vehicle id="57" depart="57.00">
        <route edges="335233767#0"/>
    </vehicle>
    <vehicle id="58" depart="58.00">
        <route edges="-222738849#2 -222738849#1 -222738849#0 -1212434935#3 -1212434935#2 -1212434935#1 -1212434935#0 1212434935#0 1212434935#1 1212434935#2 1212434935#3 222738849#0 222738849#1 222738849#2"/>
    </vehicle>
    <vehicle id="62" depart="62.00">
        <route edges="-105497663#2 -105497663#1 105497663#1 105497663#2"/>
    </vehicle>
    <vehicle id="63" depart="63.00">
        <route edges="-105497663#2 -105497663#1 86979296#0 86979296#1"/>
    </vehicle>
    <vehicle id="65" depart="65.00">
        <route edges="-222738849#2 -222738849#1 -222738849#0 -1212434935#3 -1212434935#2"/>
    </vehicle>
    <vehicle id="68" depart="68.00">
        <route edges="-105497663#2 -105497663#1 86979296#0 86979296#1 86979296#2 86979296#3 334816783#0 334816783#1"/>
    </vehicle>
    <vehicle id="69" depart="69.00">
        <route edges="334816783#1 334816783#2 334816783#3 105497663#0 86979296#0 86979296#1 86979296#2 86979296#3 -311882380#4 -311882380#3 -311882380#2"/>
    </vehicle>
    <vehicle id="78" depart="78.00">
        <route edges="-222738849#2 -222738849#1 -222738849#0 -1212434935#3 -1212434935#2 -1212434935#1 -1212434935#0 1212434935#0 1212434935#1 1212434935#2 1212434935#3 222738849#0 222738849#1 222738849#2"/>
    </vehicle>
    <vehicle id="88" depart="88.00">
        <route edges="-105497663#2 -105497663#1 105497663#1 105497663#2"/>
    </vehicle>
    <vehicle id="91" depart="91.00">
        <route edges="86979296#1 86979296#2 86979296#3 -311882380#4 -311882380#3 -311882380#2"/>
    </vehicle>
    <vehicle id="92" depart="92.00">
        <route edges="-311882380#2 -311882380#1 -311882380#0 311882380#0 311882380#1 311882380#2 311882380#3 311882380#4 334816783#0 334816783#1 334816783#2 334816783#3 105497663#0 105497663#1 105497663#2"/>
    </vehicle>
    <vehicle id="95" depart="95.00">
        <route edges="-311882380#2 -311882380#1 -311882380#0 311882380#0 311882380#1 311882380#2 311882380#3 311882380#4 334816783#0 334816783#1 334816783#2 334816783#3 105497663#0 105497663#1 105497663#2"/>
    </vehicle>
    <vehicle id="98" depart="98.00">
        <route edges="1212434935#0 1212434935#1 1212434935#2 1212434935#3 222738849#0 222738849#1 222738849#2 -222738849#2 -222738849#1 -222738849#0 -1212434935#3 -1212434935#2 -1212434935#1 -1212434935#0"/>
    </vehicle>
    <vehicle id="99" depart="99.00">
        <route edges="86979296#2 86979296#3 334816783#0 334816783#1 334816783#2 334816783#3"/>
    </vehicle>
</routes>
