<?xml version="1.0" encoding="UTF-8"?>

<!-- generated on 2024-01-06 18:28:18 by Eclipse SUMO netconvert Version 1.16.0
<configuration xmlns:xsi="http://www.w3.org/2001/XMLSchema-instance" xsi:noNamespaceSchemaLocation="http://sumo.dlr.de/xsd/netconvertConfiguration.xsd">

    <input>
        <osm-files value="map.osm"/>
    </input>

    <output>
        <output-file value="map.net.xml"/>
    </output>

    <projection>
        <proj.utm value="true"/>
    </projection>

</configuration>
-->

<net version="1.16" junctionCornerDetail="5" limitTurnSpeed="5.50" xmlns:xsi="http://www.w3.org/2001/XMLSchema-instance" xsi:noNamespaceSchemaLocation="http://sumo.dlr.de/xsd/net_file.xsd">

    <location netOffset="-356062.99,-2764471.61" convBoundary="0.00,0.00,2085.17,1511.67" origBoundary="121.555213,24.969156,121.650700,25.084770" projParameter="+proj=utm +zone=51 +ellps=WGS84 +datum=WGS84 +units=m +no_defs"/>

    <type id="highway.bridleway" priority="1" numLanes="1" speed="2.78" allow="pedestrian" oneway="1" width="2.00"/>
    <type id="highway.bus_guideway" priority="1" numLanes="1" speed="27.78" allow="bus" oneway="1"/>
    <type id="highway.cycleway" priority="1" numLanes="1" speed="5.56" allow="bicycle" oneway="0" width="1.00"/>
    <type id="highway.footway" priority="1" numLanes="1" speed="2.78" allow="pedestrian" oneway="1" width="2.00"/>
    <type id="highway.ford" priority="1" numLanes="1" speed="2.78" allow="army" oneway="0"/>
    <type id="highway.living_street" priority="2" numLanes="1" speed="2.78" disallow="tram rail_urban rail rail_electric rail_fast ship" oneway="0"/>
    <type id="highway.motorway" priority="14" numLanes="2" speed="39.44" allow="private emergency authority army vip passenger hov taxi bus coach delivery truck trailer motorcycle evehicle custom1 custom2" oneway="1"/>
    <type id="highway.motorway_link" priority="9" numLanes="1" speed="22.22" allow="private emergency authority army vip passenger hov taxi bus coach delivery truck trailer motorcycle evehicle custom1 custom2" oneway="1"/>
    <type id="highway.path" priority="1" numLanes="1" speed="5.56" allow="pedestrian bicycle" oneway="0" width="2.00"/>
    <type id="highway.pedestrian" priority="1" numLanes="1" speed="2.78" allow="pedestrian" oneway="1" width="2.00"/>
    <type id="highway.primary" priority="12" numLanes="2" speed="27.78" disallow="tram rail_urban rail rail_electric rail_fast ship" oneway="0"/>
    <type id="highway.primary_link" priority="7" numLanes="1" speed="22.22" disallow="tram rail_urban rail rail_electric rail_fast ship" oneway="0"/>
    <type id="highway.raceway" priority="15" numLanes="2" speed="83.33" allow="vip" oneway="0"/>
    <type id="highway.residential" priority="3" numLanes="1" speed="13.89" disallow="tram rail_urban rail rail_electric rail_fast ship" oneway="0"/>
    <type id="highway.secondary" priority="11" numLanes="1" speed="27.78" disallow="tram rail_urban rail rail_electric rail_fast ship" oneway="0"/>
    <type id="highway.secondary_link" priority="6" numLanes="1" speed="22.22" disallow="tram rail_urban rail rail_electric rail_fast ship" oneway="0"/>
    <type id="highway.service" priority="1" numLanes="1" speed="5.56" allow="pedestrian delivery bicycle" oneway="0"/>
    <type id="highway.stairs" priority="1" numLanes="1" speed="1.39" allow="pedestrian" oneway="1" width="2.00"/>
    <type id="highway.step" priority="1" numLanes="1" speed="1.39" allow="pedestrian" oneway="1" width="2.00"/>
    <type id="highway.steps" priority="1" numLanes="1" speed="1.39" allow="pedestrian" oneway="1" width="2.00"/>
    <type id="highway.tertiary" priority="10" numLanes="1" speed="22.22" disallow="tram rail_urban rail rail_electric rail_fast ship" oneway="0"/>
    <type id="highway.tertiary_link" priority="5" numLanes="1" speed="22.22" disallow="tram rail_urban rail rail_electric rail_fast ship" oneway="0"/>
    <type id="highway.track" priority="1" numLanes="1" speed="5.56" allow="pedestrian motorcycle moped bicycle" oneway="0"/>
    <type id="highway.trunk" priority="13" numLanes="2" speed="27.78" disallow="pedestrian bicycle tram rail_urban rail rail_electric rail_fast ship" oneway="0"/>
    <type id="highway.trunk_link" priority="8" numLanes="1" speed="22.22" disallow="pedestrian bicycle tram rail_urban rail rail_electric rail_fast ship" oneway="0"/>
    <type id="highway.unclassified" priority="4" numLanes="1" speed="13.89" disallow="tram rail_urban rail rail_electric rail_fast ship" oneway="0"/>
    <type id="highway.unsurfaced" priority="1" numLanes="1" speed="8.33" disallow="tram rail_urban rail rail_electric rail_fast ship" oneway="0"/>
    <type id="railway.highspeed" priority="21" numLanes="1" speed="69.44" allow="rail_fast" oneway="1"/>
    <type id="railway.light_rail" priority="19" numLanes="1" speed="27.78" allow="rail_urban" oneway="1"/>
    <type id="railway.preserved" priority="16" numLanes="1" speed="27.78" allow="rail" oneway="1"/>
    <type id="railway.rail" priority="20" numLanes="1" speed="44.44" allow="rail" oneway="1"/>
    <type id="railway.subway" priority="18" numLanes="1" speed="27.78" allow="rail_urban" oneway="1"/>
    <type id="railway.tram" priority="17" numLanes="1" speed="13.89" allow="tram" oneway="1"/>

    <edge id=":10973322435_0" function="internal">
        <lane id=":10973322435_0_0" index="0" disallow="tram rail_urban rail rail_electric rail_fast ship" speed="13.89" length="0.30" shape="1825.32,1093.98 1825.11,1094.18"/>
        <lane id=":10973322435_0_1" index="1" disallow="tram rail_urban rail rail_electric rail_fast ship" speed="13.89" length="0.30" shape="1823.09,1091.68 1822.88,1091.89"/>
    </edge>
    <edge id=":10973322452_0" function="internal">
        <lane id=":10973322452_0_0" index="0" allow="pedestrian bus delivery bicycle" speed="5.56" length="0.10" shape="1820.15,1110.86 1820.15,1110.86"/>
    </edge>
    <edge id=":10973322452_1" function="internal">
        <lane id=":10973322452_1_0" index="0" allow="pedestrian bus delivery bicycle" speed="5.56" length="0.10" shape="1822.46,1108.65 1822.46,1108.65"/>
    </edge>
    <edge id=":10973322453_0" function="internal">
        <lane id=":10973322453_0_0" index="0" allow="pedestrian delivery bicycle" speed="3.65" length="4.67" shape="1789.70,1079.01 1789.45,1077.59 1789.75,1076.75 1790.60,1076.48 1792.01,1076.80"/>
    </edge>
    <edge id=":10973322457_0" function="internal">
        <lane id=":10973322457_0_0" index="0" disallow="tram rail_urban rail rail_electric rail_fast ship" speed="6.61" length="9.33" shape="2085.79,1088.33 2086.02,1091.09 2085.45,1093.22 2084.08,1094.71 2081.91,1095.56"/>
    </edge>
    <edge id=":10973322457_1" function="internal">
        <lane id=":10973322457_1_0" index="0" disallow="tram rail_urban rail rail_electric rail_fast ship" speed="3.65" length="4.67" shape="2081.25,1092.43 2082.59,1092.97 2083.14,1093.67 2082.92,1094.53 2081.91,1095.56"/>
    </edge>
    <edge id=":10973322458_0" function="internal">
        <lane id=":10973322458_0_0" index="0" disallow="tram rail_urban rail rail_electric rail_fast ship" speed="11.11" length="14.10" shape="2081.71,1095.60 2078.16,1096.27 2074.76,1096.75 2071.34,1097.11 2067.74,1097.37"/>
    </edge>
    <edge id=":10973322458_1" function="internal">
        <lane id=":10973322458_1_0" index="0" disallow="tram rail_urban rail rail_electric rail_fast ship" speed="7.35" length="11.56" shape="2081.71,1095.60 2079.67,1095.43 2077.90,1093.99 2076.40,1091.29 2075.18,1087.33"/>
    </edge>
    <edge id=":10973322458_2" function="internal">
        <lane id=":10973322458_2_0" index="0" disallow="tram rail_urban rail rail_electric rail_fast ship" speed="3.65" length="4.67" shape="2081.71,1095.60 2080.37,1095.07 2079.82,1094.37 2080.04,1093.50 2081.05,1092.47"/>
    </edge>
    <edge id=":10973322458_3" function="internal">
        <lane id=":10973322458_3_0" index="0" disallow="tram rail_urban rail rail_electric rail_fast ship" speed="6.17" length="9.05" shape="2067.54,1094.18 2070.03,1093.66 2071.61,1092.47 2072.29,1090.60 2072.06,1088.07"/>
    </edge>
    <edge id=":10973322458_4" function="internal">
        <lane id=":10973322458_4_0" index="0" disallow="tram rail_urban rail rail_electric rail_fast ship" speed="11.11" length="13.64" shape="2067.54,1094.18 2071.07,1093.92 2074.33,1093.59 2077.58,1093.13 2081.05,1092.47"/>
    </edge>
    <edge id=":10973322458_5" function="internal">
        <lane id=":10973322458_5_0" index="0" disallow="tram rail_urban rail rail_electric rail_fast ship" speed="3.65" length="4.67" shape="2067.54,1094.18 2068.78,1094.90 2069.23,1095.67 2068.88,1096.50 2067.74,1097.37"/>
    </edge>
    <edge id=":10973322459_0" function="internal">
        <lane id=":10973322459_0_0" index="0" disallow="tram rail_urban rail rail_electric rail_fast ship" speed="11.11" length="0.53" shape="2067.05,1097.42 2066.89,1097.42 2066.78,1097.43 2066.68,1097.43 2066.52,1097.42"/>
    </edge>
    <edge id=":10973322459_1" function="internal">
        <lane id=":10973322459_1_0" index="0" disallow="tram rail_urban rail rail_electric rail_fast ship" speed="11.11" length="0.18" shape="2066.67,1094.22 2066.72,1094.23 2066.76,1094.23 2066.80,1094.22 2066.85,1094.22"/>
    </edge>
    <edge id=":10973391543_0" function="internal">
        <lane id=":10973391543_0_0" index="0" disallow="tram rail_urban rail rail_electric rail_fast ship" speed="3.65" length="4.67" shape="1565.15,1336.87 1563.73,1337.16 1562.88,1336.88 1562.59,1336.04 1562.87,1334.62"/>
    </edge>
    <edge id=":11232991883_0" function="internal">
        <lane id=":11232991883_0_0" index="0" allow="pedestrian delivery bicycle" speed="5.56" length="9.56" shape="1326.82,1161.81 1325.88,1164.29 1324.48,1165.59 1322.64,1166.65 1320.40,1168.43"/>
    </edge>
    <edge id=":11232991883_1" function="internal">
        <lane id=":11232991883_1_0" index="0" allow="pedestrian delivery bicycle" speed="4.03" length="1.66" shape="1326.82,1161.81 1325.16,1161.91"/>
    </edge>
    <edge id=":11232991883_4" function="internal">
        <lane id=":11232991883_4_0" index="0" allow="pedestrian delivery bicycle" speed="4.03" length="4.54" shape="1325.16,1161.91 1324.91,1161.93 1323.85,1161.40 1323.62,1160.24 1324.25,1158.43"/>
    </edge>
    <edge id=":11232991883_2" function="internal">
        <lane id=":11232991883_2_0" index="0" allow="pedestrian delivery bicycle" speed="5.56" length="9.77" shape="1318.40,1165.90 1320.59,1163.97 1322.22,1162.64 1323.40,1161.08 1324.25,1158.43"/>
    </edge>
    <edge id=":11232991883_3" function="internal">
        <lane id=":11232991883_3_0" index="0" allow="pedestrian delivery bicycle" speed="3.66" length="1.45" shape="1318.40,1165.90 1319.85,1165.79"/>
    </edge>
    <edge id=":11232991883_5" function="internal">
        <lane id=":11232991883_5_0" index="0" allow="pedestrian delivery bicycle" speed="3.66" length="3.26" shape="1319.85,1165.79 1320.67,1166.17 1320.85,1167.05 1320.40,1168.43"/>
    </edge>
    <edge id=":2667020080_0" function="internal">
        <lane id=":2667020080_0_0" index="0" disallow="tram rail_urban rail rail_electric rail_fast ship" speed="22.22" length="0.30" shape="421.05,952.74 420.81,952.59"/>
        <lane id=":2667020080_0_1" index="1" disallow="tram rail_urban rail rail_electric rail_fast ship" speed="22.22" length="0.30" shape="422.78,950.05 422.52,949.89"/>
        <lane id=":2667020080_0_2" index="2" disallow="tram rail_urban rail rail_electric rail_fast ship" speed="22.22" length="0.30" shape="424.51,947.36 424.24,947.19"/>
    </edge>
    <edge id=":2814733307_0" function="internal">
        <lane id=":2814733307_0_0" index="0" disallow="tram rail_urban rail rail_electric rail_fast ship" speed="13.89" length="0.10" shape="1802.12,1115.23 1802.12,1115.23"/>
        <lane id=":2814733307_0_1" index="1" disallow="tram rail_urban rail rail_electric rail_fast ship" speed="13.89" length="0.10" shape="1799.92,1112.91 1799.92,1112.91"/>
    </edge>
    <edge id=":2814733307_2" function="internal">
        <lane id=":2814733307_2_0" index="0" disallow="tram rail_urban rail rail_electric rail_fast ship" speed="13.89" length="0.10" shape="1795.52,1108.26 1795.52,1108.26"/>
        <lane id=":2814733307_2_1" index="1" disallow="tram rail_urban rail rail_electric rail_fast ship" speed="13.89" length="0.10" shape="1797.72,1110.59 1797.72,1110.59"/>
    </edge>
    <edge id=":2963877128_0" function="internal">
        <lane id=":2963877128_0_0" index="0" allow="pedestrian bicycle" speed="2.89" length="2.92" width="2.00" shape="1806.99,-0.30 1807.69,-0.86 1808.24,-0.95 1808.64,-0.57 1808.90,0.30"/>
    </edge>
    <edge id=":3125988494_0" function="internal">
        <lane id=":3125988494_0_0" index="0" allow="rail_urban" speed="22.22" length="0.30" shape="619.01,1063.23 619.26,1063.39"/>
    </edge>
    <edge id=":3125988495_0" function="internal">
        <lane id=":3125988495_0_0" index="0" allow="rail_urban" speed="22.22" length="0.30" shape="616.97,1067.29 617.22,1067.45"/>
    </edge>
    <edge id=":3176431945_0" function="internal">
        <lane id=":3176431945_0_0" index="0" allow="pedestrian bus delivery bicycle" speed="3.65" length="4.67" shape="1988.11,1029.53 1989.34,1030.27 1989.78,1031.05 1989.42,1031.87 1988.26,1032.73"/>
    </edge>
    <edge id=":3176431951_0" function="internal">
        <lane id=":3176431951_0_0" index="0" allow="pedestrian delivery bicycle" speed="5.56" length="0.10" shape="1803.36,1093.30 1803.36,1093.30"/>
    </edge>
    <edge id=":3176431951_1" function="internal">
        <lane id=":3176431951_1_0" index="0" allow="pedestrian delivery bicycle" speed="5.56" length="0.10" shape="1805.68,1091.09 1805.68,1091.09"/>
    </edge>
    <edge id=":3176431952_0" function="internal">
        <lane id=":3176431952_0_0" index="0" allow="pedestrian bus delivery bicycle" speed="6.52" length="9.03" shape="1817.64,1108.23 1815.70,1106.70 1813.73,1106.16 1811.73,1106.60 1809.72,1108.03"/>
    </edge>
    <edge id=":3176431952_1" function="internal">
        <lane id=":3176431952_1_0" index="0" allow="pedestrian delivery bicycle" speed="5.56" length="18.30" shape="1817.64,1108.23 1804.99,1095.00"/>
    </edge>
    <edge id=":3176431952_2" function="internal">
        <lane id=":3176431952_2_0" index="0" allow="pedestrian bus delivery bicycle" speed="9.72" length="18.53" shape="1817.64,1108.23 1815.55,1104.98 1814.77,1100.98 1815.31,1096.23 1817.17,1090.73"/>
    </edge>
    <edge id=":3176431952_3" function="internal">
        <lane id=":3176431952_3_0" index="0" allow="pedestrian bus delivery bicycle" speed="3.65" length="4.67" shape="1817.64,1108.23 1817.39,1106.81 1817.69,1105.97 1818.55,1105.71 1819.95,1106.02"/>
    </edge>
    <edge id=":3176431952_4" function="internal">
        <lane id=":3176431952_4_0" index="0" allow="pedestrian bus delivery bicycle" speed="6.43" length="11.42" shape="1821.88,1097.35 1818.97,1098.98 1817.67,1100.97 1818.00,1103.31 1819.95,1106.02"/>
    </edge>
    <edge id=":3176431952_5" function="internal">
        <lane id=":3176431952_5_0" index="0" disallow="tram rail_urban rail rail_electric rail_fast ship" speed="13.89" length="17.05" shape="1821.88,1097.35 1817.62,1099.47 1815.17,1101.70 1813.03,1104.43 1809.72,1108.03"/>
        <lane id=":3176431952_5_1" index="1" disallow="tram rail_urban rail rail_electric rail_fast ship" speed="13.89" length="17.05" shape="1820.72,1094.37 1816.12,1096.63 1813.45,1098.98 1811.10,1101.86 1807.51,1105.71"/>
    </edge>
    <edge id=":3176431952_7" function="internal">
        <lane id=":3176431952_7_0" index="0" allow="pedestrian delivery bicycle" speed="9.72" length="3.75" shape="1820.72,1094.37 1817.16,1095.53"/>
    </edge>
    <edge id=":3176431952_8" function="internal">
        <lane id=":3176431952_8_0" index="0" disallow="tram rail_urban rail rail_electric rail_fast ship" speed="5.09" length="3.39" shape="1820.72,1094.37 1818.20,1095.03 1817.44,1094.83"/>
    </edge>
    <edge id=":3176431952_18" function="internal">
        <lane id=":3176431952_18_0" index="0" allow="pedestrian delivery bicycle" speed="9.72" length="12.74" shape="1817.16,1095.53 1815.27,1096.14 1810.83,1096.84 1807.41,1096.46 1804.99,1095.00"/>
    </edge>
    <edge id=":3176431952_19" function="internal">
        <lane id=":3176431952_19_0" index="0" disallow="tram rail_urban rail rail_electric rail_fast ship" speed="5.09" length="4.77" shape="1817.44,1094.83 1816.77,1094.65 1816.43,1093.21 1817.17,1090.73"/>
    </edge>
    <edge id=":3176431952_9" function="internal">
        <lane id=":3176431952_9_0" index="0" allow="pedestrian delivery bicycle" speed="5.96" length="9.67" shape="1807.31,1092.79 1809.16,1094.07 1810.94,1093.95 1812.63,1092.41 1814.23,1089.47"/>
    </edge>
    <edge id=":3176431952_10" function="internal">
        <lane id=":3176431952_10_0" index="0" allow="pedestrian delivery bicycle" speed="5.56" length="18.30" shape="1807.31,1092.79 1819.95,1106.02"/>
    </edge>
    <edge id=":3176431952_11" function="internal">
        <lane id=":3176431952_11_0" index="0" allow="pedestrian delivery bicycle" speed="8.13" length="14.74" shape="1807.31,1092.79 1809.79,1096.18 1810.65,1099.46 1809.89,1102.64 1807.51,1105.71"/>
    </edge>
    <edge id=":3176431952_12" function="internal">
        <lane id=":3176431952_12_0" index="0" allow="pedestrian delivery bicycle" speed="3.65" length="4.67" shape="1807.31,1092.79 1807.56,1094.21 1807.26,1095.05 1806.40,1095.32 1804.99,1095.00"/>
    </edge>
    <edge id=":3176431952_13" function="internal">
        <lane id=":3176431952_13_0" index="0" allow="pedestrian delivery bicycle" speed="5.83" length="7.08" shape="1803.11,1101.06 1804.74,1099.25 1805.60,1097.64 1805.68,1096.23 1804.99,1095.00"/>
    </edge>
    <edge id=":3176431952_14" function="internal">
        <lane id=":3176431952_14_0" index="0" disallow="tram rail_urban rail rail_electric rail_fast ship" speed="13.89" length="16.97" shape="1803.11,1101.06 1806.87,1097.96 1809.67,1095.96 1811.98,1093.62 1814.23,1089.47"/>
        <lane id=":3176431952_14_1" index="1" disallow="tram rail_urban rail rail_electric rail_fast ship" speed="13.89" length="16.97" shape="1805.31,1103.39 1809.34,1100.01 1812.32,1097.81 1814.77,1095.23 1817.17,1090.73"/>
    </edge>
    <edge id=":3176431952_16" function="internal">
        <lane id=":3176431952_16_0" index="0" allow="pedestrian bus delivery bicycle" speed="8.68" length="2.86" shape="1805.31,1103.39 1807.73,1101.85"/>
    </edge>
    <edge id=":3176431952_17" function="internal">
        <lane id=":3176431952_17_0" index="0" disallow="tram rail_urban rail rail_electric rail_fast ship" speed="3.65" length="1.44" shape="1805.31,1103.39 1806.74,1103.14"/>
    </edge>
    <edge id=":3176431952_20" function="internal">
        <lane id=":3176431952_20_0" index="0" allow="pedestrian bus delivery bicycle" speed="8.68" length="13.97" shape="1807.73,1101.85 1808.62,1101.29 1812.16,1101.03 1815.94,1102.61 1819.95,1106.02"/>
    </edge>
    <edge id=":3176431952_21" function="internal">
        <lane id=":3176431952_21_0" index="0" disallow="tram rail_urban rail rail_electric rail_fast ship" speed="3.65" length="3.23" shape="1806.74,1103.14 1807.58,1103.45 1807.84,1104.30 1807.51,1105.71"/>
    </edge>
    <edge id=":4137886667_0" function="internal">
        <lane id=":4137886667_0_0" index="0" allow="pedestrian bicycle" speed="2.89" length="2.92" width="2.00" shape="1693.23,832.96 1692.32,832.93 1691.85,832.64 1691.80,832.08 1692.17,831.26"/>
    </edge>
    <edge id=":4342010290_0" function="internal">
        <lane id=":4342010290_0_0" index="0" allow="pedestrian delivery bicycle" speed="5.00" length="5.05" shape="927.42,943.96 926.15,943.39 925.02,943.36 924.02,943.90 923.15,944.98"/>
    </edge>
    <edge id=":4342010290_1" function="internal">
        <lane id=":4342010290_1_0" index="0" allow="pedestrian delivery bicycle" speed="3.65" length="4.67" shape="927.42,943.96 926.84,942.64 926.94,941.75 927.71,941.30 929.15,941.27"/>
    </edge>
    <edge id=":4342010290_2" function="internal">
        <lane id=":4342010290_2_0" index="0" allow="pedestrian bus delivery bicycle" speed="5.56" length="10.35" shape="920.39,943.36 922.18,941.13 924.23,940.04 926.55,940.09 929.15,941.27"/>
    </edge>
    <edge id=":4342010290_3" function="internal">
        <lane id=":4342010290_3_0" index="0" allow="pedestrian delivery bicycle" speed="3.65" length="4.67" shape="920.39,943.36 921.69,942.73 922.59,942.79 923.07,943.54 923.15,944.98"/>
    </edge>
    <edge id=":4342010291_0" function="internal">
        <lane id=":4342010291_0_0" index="0" allow="pedestrian bus delivery bicycle" speed="5.56" length="7.07" shape="983.84,975.89 982.03,976.90 980.92,977.82 980.05,978.99 978.92,980.76"/>
    </edge>
    <edge id=":4342010291_1" function="internal">
        <lane id=":4342010291_1_0" index="0" allow="pedestrian delivery bicycle" speed="5.56" length="9.00" shape="983.84,975.89 981.89,976.52 979.82,976.54 977.63,975.94 975.32,974.73"/>
    </edge>
    <edge id=":4342010291_2" function="internal">
        <lane id=":4342010291_2_0" index="0" allow="pedestrian delivery bicycle" speed="3.65" length="4.67" shape="983.84,975.89 982.41,975.71 981.69,975.17 981.69,974.28 982.41,973.03"/>
    </edge>
    <edge id=":4342010291_3" function="internal">
        <lane id=":4342010291_3_0" index="0" allow="pedestrian delivery bicycle" speed="5.56" length="5.70" shape="977.05,972.04 978.59,972.87 980.00,973.31 981.27,973.37 982.41,973.03"/>
    </edge>
    <edge id=":4342010291_4" function="internal">
        <lane id=":4342010291_4_0" index="0" allow="pedestrian bus delivery bicycle" speed="5.56" length="10.19" shape="977.05,972.04 979.16,973.86 980.18,975.93 980.10,978.23 978.92,980.76"/>
    </edge>
    <edge id=":4342010291_5" function="internal">
        <lane id=":4342010291_5_0" index="0" allow="pedestrian delivery bicycle" speed="3.65" length="4.67" shape="977.05,972.04 977.63,973.36 977.53,974.25 976.76,974.70 975.32,974.73"/>
    </edge>
    <edge id=":4342010291_6" function="internal">
        <lane id=":4342010291_6_0" index="0" allow="pedestrian delivery bicycle" speed="5.03" length="5.01" shape="976.24,979.01 976.82,977.77 976.86,976.64 976.36,975.63 975.32,974.73"/>
    </edge>
    <edge id=":4342010291_7" function="internal">
        <lane id=":4342010291_7_0" index="0" allow="pedestrian delivery bicycle" speed="5.56" length="8.79" shape="976.24,979.01 977.65,976.83 978.76,975.39 980.15,974.26 982.41,973.03"/>
    </edge>
    <edge id=":4342010291_8" function="internal">
        <lane id=":4342010291_8_0" index="0" allow="pedestrian delivery bicycle" speed="3.65" length="4.67" shape="976.24,979.01 977.56,978.45 978.45,978.55 978.91,979.32 978.92,980.76"/>
    </edge>
    <edge id=":4413062261_0" function="internal">
        <lane id=":4413062261_0_0" index="0" disallow="tram rail_urban rail rail_electric rail_fast ship" speed="13.89" length="0.30" shape="1583.57,1322.98 1583.35,1323.19"/>
        <lane id=":4413062261_0_1" index="1" disallow="tram rail_urban rail rail_electric rail_fast ship" speed="13.89" length="0.30" shape="1581.34,1320.68 1581.12,1320.89"/>
    </edge>
    <edge id=":4413062261_2" function="internal">
        <lane id=":4413062261_2_0" index="0" disallow="tram rail_urban rail rail_electric rail_fast ship" speed="13.89" length="0.30" shape="1576.68,1316.28 1576.89,1316.07"/>
        <lane id=":4413062261_2_1" index="1" disallow="tram rail_urban rail rail_electric rail_fast ship" speed="13.89" length="0.30" shape="1578.90,1318.58 1579.12,1318.38"/>
    </edge>
    <edge id=":4629126975_0" function="internal">
        <lane id=":4629126975_0_0" index="0" allow="bicycle" speed="5.56" length="4.21" width="1.00" shape="618.60,1120.87 617.37,1120.94 616.53,1121.13 615.75,1121.52 614.70,1122.20"/>
    </edge>
    <edge id=":4629126975_1" function="internal">
        <lane id=":4629126975_1_0" index="0" allow="bicycle" speed="2.04" length="0.73" width="1.00" shape="618.60,1120.87 618.22,1120.63 618.09,1120.38"/>
    </edge>
    <edge id=":4629126975_4" function="internal">
        <lane id=":4629126975_4_0" index="0" allow="bicycle" speed="2.04" length="0.73" width="1.00" shape="618.09,1120.38 618.21,1120.13 618.58,1119.87"/>
    </edge>
    <edge id=":4629126975_2" function="internal">
        <lane id=":4629126975_2_0" index="0" allow="bicycle" speed="5.56" length="4.77" width="1.00" shape="614.16,1121.36 615.35,1120.60 616.23,1120.16 617.18,1119.95 618.58,1119.87"/>
    </edge>
    <edge id=":4629126975_3" function="internal">
        <lane id=":4629126975_3_0" index="0" allow="bicycle" speed="2.04" length="0.73" width="1.00" shape="614.16,1121.36 614.61,1121.36 614.85,1121.50"/>
    </edge>
    <edge id=":4629126975_5" function="internal">
        <lane id=":4629126975_5_0" index="0" allow="bicycle" speed="2.04" length="0.73" width="1.00" shape="614.85,1121.50 614.88,1121.78 614.70,1122.20"/>
    </edge>
    <edge id=":4854492243_0" function="internal">
        <lane id=":4854492243_0_0" index="0" allow="pedestrian delivery bicycle" speed="5.56" length="6.57" shape="1455.22,926.90 1453.07,927.08 1451.43,927.58 1450.30,928.41 1449.69,929.55"/>
    </edge>
    <edge id=":4854492243_1" function="internal">
        <lane id=":4854492243_1_0" index="0" allow="pedestrian delivery bicycle" speed="5.56" length="9.20" shape="1455.22,926.90 1451.68,926.70 1449.32,926.04 1448.15,924.92 1448.18,923.34"/>
    </edge>
    <edge id=":4854492243_2" function="internal">
        <lane id=":4854492243_2_0" index="0" allow="pedestrian delivery bicycle" speed="3.65" length="4.67" shape="1455.22,926.90 1454.02,926.11 1453.61,925.31 1454.00,924.51 1455.20,923.70"/>
    </edge>
    <edge id=":4854492243_3" function="internal">
        <lane id=":4854492243_3_0" index="0" allow="pedestrian delivery bicycle" speed="4.23" length="4.05" shape="1451.21,924.38 1455.20,923.70"/>
    </edge>
    <edge id=":4854492243_4" function="internal">
        <lane id=":4854492243_4_0" index="0" allow="pedestrian delivery bicycle" speed="5.56" length="5.39" shape="1451.21,924.38 1449.69,929.55"/>
    </edge>
    <edge id=":4854492243_5" function="internal">
        <lane id=":4854492243_5_0" index="0" allow="pedestrian delivery bicycle" speed="3.65" length="4.67" shape="1451.21,924.38 1450.06,925.26 1449.18,925.37 1448.55,924.73 1448.18,923.34"/>
    </edge>
    <edge id=":4854492243_6" function="internal">
        <lane id=":4854492243_6_0" index="0" allow="pedestrian delivery bicycle" speed="5.56" length="5.59" shape="1446.60,928.70 1448.18,923.34"/>
    </edge>
    <edge id=":4854492243_7" function="internal">
        <lane id=":4854492243_7_0" index="0" allow="pedestrian delivery bicycle" speed="5.56" length="10.73" shape="1446.60,928.70 1447.65,926.54 1449.43,924.98 1451.95,924.03 1455.20,923.70"/>
    </edge>
    <edge id=":4854492243_8" function="internal">
        <lane id=":4854492243_8_0" index="0" allow="pedestrian delivery bicycle" speed="3.65" length="4.67" shape="1446.60,928.70 1447.69,927.76 1448.57,927.58 1449.23,928.18 1449.69,929.55"/>
    </edge>
    <edge id=":4854492244_0" function="internal">
        <lane id=":4854492244_0_0" index="0" allow="pedestrian delivery bicycle" speed="5.12" length="5.02" shape="1521.47,929.36 1521.21,928.04 1520.58,927.09 1519.57,926.53 1518.20,926.36"/>
    </edge>
    <edge id=":4854492244_1" function="internal">
        <lane id=":4854492244_1_0" index="0" allow="pedestrian delivery bicycle" speed="5.56" length="9.31" shape="1521.47,929.36 1521.26,920.05"/>
    </edge>
    <edge id=":4854492244_2" function="internal">
        <lane id=":4854492244_2_0" index="0" allow="pedestrian delivery bicycle" speed="3.65" length="4.67" shape="1521.47,929.36 1522.21,928.12 1522.99,927.68 1523.81,928.04 1524.67,929.20"/>
    </edge>
    <edge id=":4854492244_3" function="internal">
        <lane id=":4854492244_3_0" index="0" allow="pedestrian delivery bicycle" speed="5.56" length="9.15" shape="1524.46,920.06 1524.67,929.20"/>
    </edge>
    <edge id=":4854492244_4" function="internal">
        <lane id=":4854492244_4_0" index="0" allow="pedestrian delivery bicycle" speed="5.56" length="10.10" shape="1524.46,920.06 1524.06,922.79 1522.88,924.75 1520.93,925.94 1518.20,926.36"/>
    </edge>
    <edge id=":4854492244_5" function="internal">
        <lane id=":4854492244_5_0" index="0" allow="pedestrian delivery bicycle" speed="3.65" length="4.67" shape="1524.46,920.06 1523.66,921.26 1522.86,921.65 1522.06,921.25 1521.26,920.05"/>
    </edge>
    <edge id=":4854492244_6" function="internal">
        <lane id=":4854492244_6_0" index="0" allow="pedestrian delivery bicycle" speed="5.05" length="4.99" shape="1518.17,923.16 1519.52,922.95 1520.48,922.37 1521.06,921.40 1521.26,920.05"/>
    </edge>
    <edge id=":4854492244_7" function="internal">
        <lane id=":4854492244_7_0" index="0" allow="pedestrian delivery bicycle" speed="5.56" length="10.03" shape="1518.17,923.16 1520.90,923.51 1522.89,924.64 1524.15,926.54 1524.67,929.20"/>
    </edge>
    <edge id=":4854492244_8" function="internal">
        <lane id=":4854492244_8_0" index="0" allow="pedestrian delivery bicycle" speed="3.65" length="4.67" shape="1518.17,923.16 1519.38,923.95 1519.78,924.74 1519.39,925.55 1518.20,926.36"/>
    </edge>
    <edge id=":4854492248_0" function="internal">
        <lane id=":4854492248_0_0" index="0" allow="pedestrian delivery bicycle" speed="5.56" length="10.21" shape="1416.32,1034.79 1406.12,1035.32"/>
    </edge>
    <edge id=":4854492248_1" function="internal">
        <lane id=":4854492248_1_0" index="0" allow="pedestrian delivery bicycle" speed="5.56" length="10.99" shape="1416.32,1034.79 1414.10,1034.50 1411.99,1033.33 1409.98,1031.29 1408.09,1028.37"/>
    </edge>
    <edge id=":4854492248_2" function="internal">