<?xml version="1.0" encoding="UTF-8"?>

<configuration xmlns:xsi="http://www.w3.org/2001/XMLSchema-instance" xsi:noNamespaceSchemaLocation="http://sumo.dlr.de/xsd/polyconvertConfiguration.xsd">
    <input>
        <net-file value="map.net_nolight.xml"/>
        <!-- <net-file value="map.net_light.xml"/> -->
        <route-files value="map.rou.xml"/>
        
        <additional-files value="additional.add.xml,taz.add.xml"/>
    </input>
    <time>
        <begin value="0"/>
        <end value="57600"/>
    </time>
</configuration>