<?xml version="1.0" encoding="UTF-8"?>

<!-- generated on 2023-11-27 14:53:00 by Eclipse SUMO netedit Version 1.16.0
-->

<additional xmlns:xsi="http://www.w3.org/2001/XMLSchema-instance" xsi:noNamespaceSchemaLocation="http://sumo.dlr.de/xsd/additional_file.xsd">
    <!-- TAZs -->
    <taz id="taz_0" shape="11.50,1187.18 34.06,860.13 940.03,1311.24 960.70,1600.70 9.62,1183.43 11.50,1187.18" color="blue">
        <tazSource id="-561594671" weight="1.00"/>
        <tazSink id="-561594671" weight="1.00"/>
        <tazSource id="561594671" weight="1.00"/>
        <tazSink id="561594671" weight="1.00"/>
    </taz>
    <taz id="taz_1" shape="1233.93,1566.03 1321.62,1289.94 1354.95,1276.89 1462.93,1293.56 1540.47,1410.23 1575.25,1500.81 1565.10,1580.53 1233.93,1576.90 1233.93,1566.03" color="blue">
        <tazSource id="-221882281#0" weight="1.00"/>
        <tazSink id="-221882281#0" weight="1.00"/>
        <tazSource id="-221882281#1" weight="1.00"/>
        <tazSink id="-221882281#1" weight="1.00"/>
        <tazSource id="-221882281#2" weight="1.00"/>
        <tazSink id="-221882281#2" weight="1.00"/>
        <tazSource id="-221882281#3" weight="1.00"/>
        <tazSink id="-221882281#3" weight="1.00"/>
        <tazSource id="-221882281#4" weight="1.00"/>
        <tazSink id="-221882281#4" weight="1.00"/>
        <tazSource id="-221882281#5" weight="1.00"/>
        <tazSink id="-221882281#5" weight="1.00"/>
        <tazSource id="-221882284" weight="1.00"/>
        <tazSink id="-221882284" weight="1.00"/>
        <tazSource id="-221882286" weight="1.00"/>
        <tazSink id="-221882286" weight="1.00"/>
        <tazSource id="-221882287" weight="1.00"/>
        <tazSink id="-221882287" weight="1.00"/>
        <tazSource id="-221882288" weight="1.00"/>
        <tazSink id="-221882288" weight="1.00"/>
        <tazSource id="-351365683#0" weight="1.00"/>
        <tazSink id="-351365683#0" weight="1.00"/>
        <tazSource id="-702577213" weight="1.00"/>
        <tazSink id="-702577213" weight="1.00"/>
        <tazSource id="141298284" weight="1.00"/>
        <tazSink id="141298284" weight="1.00"/>
        <tazSource id="221882281#0" weight="1.00"/>
        <tazSink id="221882281#0" weight="1.00"/>
        <tazSource id="221882281#1" weight="1.00"/>
        <tazSink id="221882281#1" weight="1.00"/>
        <tazSource id="221882281#2" weight="1.00"/>
        <tazSink id="221882281#2" weight="1.00"/>
        <tazSource id="221882281#3" weight="1.00"/>
        <tazSink id="221882281#3" weight="1.00"/>
        <tazSource id="221882281#4" weight="1.00"/>
        <tazSink id="221882281#4" weight="1.00"/>
        <tazSource id="221882281#5" weight="1.00"/>
        <tazSink id="221882281#5" weight="1.00"/>
        <tazSource id="221882282" weight="1.00"/>
        <tazSink id="221882282" weight="1.00"/>
        <tazSource id="221882284" weight="1.00"/>
        <tazSink id="221882284" weight="1.00"/>
        <tazSource id="221882285" weight="1.00"/>
        <tazSink id="221882285" weight="1.00"/>
        <tazSource id="221882286" weight="1.00"/>
        <tazSink id="221882286" weight="1.00"/>
        <tazSource id="221882287" weight="1.00"/>
        <tazSink id="221882287" weight="1.00"/>
        <tazSource id="221882288" weight="1.00"/>
        <tazSink id="221882288" weight="1.00"/>
        <tazSource id="351365683#0" weight="1.00"/>
        <tazSink id="351365683#0" weight="1.00"/>
        <tazSource id="702577213" weight="1.00"/>
        <tazSink id="702577213" weight="1.00"/>
    </taz>
    <taz id="taz_2" shape="1618.01,1574.00 1563.66,1406.61 1481.04,1302.98 1494.09,1260.95 1461.48,1231.24 1470.90,1205.15 1644.82,1331.24 1763.66,1516.03 1799.17,1560.96 1618.01,1573.28 1618.01,1574.00" color="blue">
        <tazSource id="-141298280" weight="1.00"/>
        <tazSink id="-141298280" weight="1.00"/>
        <tazSource id="-16865354" weight="1.00"/>
        <tazSink id="-16865354" weight="1.00"/>
        <tazSource id="-806393201" weight="1.00"/>
        <tazSink id="-806393201" weight="1.00"/>
        <tazSource id="141298280" weight="1.00"/>
        <tazSink id="141298280" weight="1.00"/>
        <tazSource id="141298282#0" weight="1.00"/>
        <tazSink id="141298282#0" weight="1.00"/>
        <tazSource id="142856368#1" weight="1.00"/>
        <tazSink id="142856368#1" weight="1.00"/>
        <tazSource id="142856368#2" weight="1.00"/>
        <tazSink id="142856368#2" weight="1.00"/>
        <tazSource id="142856368#3" weight="1.00"/>
        <tazSink id="142856368#3" weight="1.00"/>
        <tazSource id="16865354" weight="1.00"/>
        <tazSink id="16865354" weight="1.00"/>
        <tazSource id="806393201" weight="1.00"/>
        <tazSink id="806393201" weight="1.00"/>
    </taz>
    <taz id="taz_3" shape="1757.86,1177.95 1625.82,896.79 1692.62,845.52 1925.63,1167.08 1753.20,1176.40 1757.86,1177.95" color="blue">
        <tazSource id="-202030846#1" weight="1.00"/>
        <tazSink id="-202030846#1" weight="1.00"/>
        <tazSource id="-202030846#2" weight="1.00"/>
        <tazSink id="-202030846#2" weight="1.00"/>
        <tazSource id="202030846#1" weight="1.00"/>
        <tazSink id="202030846#1" weight="1.00"/>
        <tazSource id="202030846#2" weight="1.00"/>
        <tazSink id="202030846#2" weight="1.00"/>
    </taz>
    <taz id="taz_4" shape="1533.44,723.94 1290.55,262.16 1357.21,88.48 1519.82,111.00 1684.94,766.46 1532.33,721.43 1533.44,723.94" color="blue">
        <tazSource id="112131442#0" weight="1.00"/>
        <tazSink id="112131442#0" weight="1.00"/>
        <tazSource id="112131442#1" weight="1.00"/>
        <tazSink id="112131442#1" weight="1.00"/>
        <tazSource id="141298271#0" weight="1.00"/>
        <tazSink id="141298271#0" weight="1.00"/>
        <tazSource id="141298271#1" weight="1.00"/>
        <tazSink id="141298271#1" weight="1.00"/>
    </taz>
    <taz id="taz_5" shape="1131.81,1116.48 910.58,1048.25 664.54,849.76 891.97,-39.29 993.29,-33.08 1266.20,905.59 1303.42,1083.40 1117.34,1112.34 1131.81,1116.48" color="blue">
        <tazSource id="-1178709289" weight="1.00"/>
        <tazSink id="-1178709289" weight="1.00"/>
        <tazSource id="-141296029#0" weight="1.00"/>
        <tazSink id="-141296029#0" weight="1.00"/>
        <tazSource id="-141296029#1" weight="1.00"/>
        <tazSink id="-141296029#1" weight="1.00"/>
        <tazSource id="-141296029#2" weight="1.00"/>
        <tazSink id="-141296029#2" weight="1.00"/>
        <tazSource id="-141296029#3" weight="1.00"/>
        <tazSink id="-141296029#3" weight="1.00"/>
        <tazSource id="-16860823#0" weight="1.00"/>
        <tazSink id="-16860823#0" weight="1.00"/>
        <tazSource id="-16860823#1" weight="1.00"/>
        <tazSink id="-16860823#1" weight="1.00"/>
        <tazSource id="-16860823#2" weight="1.00"/>
        <tazSink id="-16860823#2" weight="1.00"/>
        <tazSource id="-16860826#0" weight="1.00"/>
        <tazSink id="-16860826#0" weight="1.00"/>
        <tazSource id="-16860826#1" weight="1.00"/>
        <tazSink id="-16860826#1" weight="1.00"/>
        <tazSource id="-16860826#2" weight="1.00"/>
        <tazSink id="-16860826#2" weight="1.00"/>
        <tazSource id="-879857508#1" weight="1.00"/>
        <tazSink id="-879857508#1" weight="1.00"/>
        <tazSource id="1178709289" weight="1.00"/>
        <tazSink id="1178709289" weight="1.00"/>
        <tazSource id="141296029#0" weight="1.00"/>
        <tazSink id="141296029#0" weight="1.00"/>
        <tazSource id="141296029#1" weight="1.00"/>
        <tazSink id="141296029#1" weight="1.00"/>
        <tazSource id="141296029#2" weight="1.00"/>
        <tazSink id="141296029#2" weight="1.00"/>
        <tazSource id="141296029#3" weight="1.00"/>
        <tazSink id="141296029#3" weight="1.00"/>
        <tazSource id="16860823#0" weight="1.00"/>
        <tazSink id="16860823#0" weight="1.00"/>
        <tazSource id="16860823#1" weight="1.00"/>
        <tazSink id="16860823#1" weight="1.00"/>
        <tazSource id="16860823#2" weight="1.00"/>
        <tazSink id="16860823#2" weight="1.00"/>
        <tazSource id="16860826#0" weight="1.00"/>
        <tazSink id="16860826#0" weight="1.00"/>
        <tazSource id="16860826#1" weight="1.00"/>
        <tazSink id="16860826#1" weight="1.00"/>
        <tazSource id="16860826#2" weight="1.00"/>
        <tazSink id="16860826#2" weight="1.00"/>
        <tazSource id="879857508#1" weight="1.00"/>
        <tazSink id="879857508#1" weight="1.00"/>
    </taz>
    <taz id="taz_6" shape="1331.45,1205.31 1320.95,1138.78 1333.79,1012.74 1294.11,861.02 1341.96,645.11 1429.49,603.09 1477.34,674.29 1499.51,753.65 1561.37,783.99 1555.53,851.68 1462.17,973.06 1511.18,1169.13 1369.97,1226.32 1331.45,1202.97 1331.45,1205.31" color="blue">
        <tazSource id="-1049931812" weight="1.00"/>
        <tazSink id="-1049931812" weight="1.00"/>
        <tazSource id="-1049931817" weight="1.00"/>
        <tazSink id="-1049931817" weight="1.00"/>
        <tazSource id="-1049966443" weight="1.00"/>
        <tazSink id="-1049966443" weight="1.00"/>
        <tazSource id="-141298276#0" weight="1.00"/>
        <tazSink id="-141298276#0" weight="1.00"/>
        <tazSource id="-141298276#1" weight="1.00"/>
        <tazSink id="-141298276#1" weight="1.00"/>
        <tazSource id="-141298276#2" weight="1.00"/>
        <tazSink id="-141298276#2" weight="1.00"/>
        <tazSource id="-141298276#3" weight="1.00"/>
        <tazSink id="-141298276#3" weight="1.00"/>
        <tazSource id="-141298276#4" weight="1.00"/>
        <tazSink id="-141298276#4" weight="1.00"/>
        <tazSource id="-167476855#0" weight="1.00"/>
        <tazSink id="-167476855#0" weight="1.00"/>
        <tazSource id="-167476855#1" weight="1.00"/>
        <tazSink id="-167476855#1" weight="1.00"/>
        <tazSource id="-16863384#0" weight="1.00"/>
        <tazSink id="-16863384#0" weight="1.00"/>
        <tazSource id="-16863384#1" weight="1.00"/>
        <tazSink id="-16863384#1" weight="1.00"/>
        <tazSource id="-16863384#2" weight="1.00"/>
        <tazSink id="-16863384#2" weight="1.00"/>
        <tazSource id="-16863384#3" weight="1.00"/>
        <tazSink id="-16863384#3" weight="1.00"/>
        <tazSource id="-702577176#0" weight="1.00"/>
        <tazSink id="-702577176#0" weight="1.00"/>
        <tazSource id="-702577176#2" weight="1.00"/>
        <tazSink id="-702577176#2" weight="1.00"/>
        <tazSource id="-702577180" weight="1.00"/>
        <tazSink id="-702577180" weight="1.00"/>
        <tazSource id="-702577185#5" weight="1.00"/>
        <tazSink id="-702577185#5" weight="1.00"/>
        <tazSource id="-702577185#6" weight="1.00"/>
        <tazSink id="-702577185#6" weight="1.00"/>
        <tazSource id="-702577185#7" weight="1.00"/>
        <tazSink id="-702577185#7" weight="1.00"/>
        <tazSource id="-776079735#0" weight="1.00"/>
        <tazSink id="-776079735#0" weight="1.00"/>
        <tazSource id="-776079735#2" weight="1.00"/>
        <tazSink id="-776079735#2" weight="1.00"/>
        <tazSource id="1049931812" weight="1.00"/>
        <tazSink id="1049931812" weight="1.00"/>
        <tazSource id="1049931816" weight="1.00"/>
        <tazSink id="1049931816" weight="1.00"/>
        <tazSource id="1049931817" weight="1.00"/>
        <tazSink id="1049931817" weight="1.00"/>
        <tazSource id="1049966443" weight="1.00"/>
        <tazSink id="1049966443" weight="1.00"/>
        <tazSource id="141298263#1" weight="1.00"/>
        <tazSink id="141298263#1" weight="1.00"/>
        <tazSource id="141298263#2" weight="1.00"/>
        <tazSink id="141298263#2" weight="1.00"/>
        <tazSource id="141298263#3" weight="1.00"/>
        <tazSink id="141298263#3" weight="1.00"/>
        <tazSource id="141298263#4" weight="1.00"/>
        <tazSink id="141298263#4" weight="1.00"/>
        <tazSource id="141298263#5" weight="1.00"/>
        <tazSink id="141298263#5" weight="1.00"/>
        <tazSource id="141298269#0" weight="1.00"/>
        <tazSink id="141298269#0" weight="1.00"/>
        <tazSource id="141298269#1" weight="1.00"/>
        <tazSink id="141298269#1" weight="1.00"/>
        <tazSource id="141298269#2" weight="1.00"/>
        <tazSink id="141298269#2" weight="1.00"/>
        <tazSource id="141298269#3" weight="1.00"/>
        <tazSink id="141298269#3" weight="1.00"/>
        <tazSource id="141298276#0" weight="1.00"/>
        <tazSink id="141298276#0" weight="1.00"/>
        <tazSource id="141298276#1" weight="1.00"/>
        <tazSink id="141298276#1" weight="1.00"/>
        <tazSource id="141298276#2" weight="1.00"/>
        <tazSink id="141298276#2" weight="1.00"/>
        <tazSource id="141298276#3" weight="1.00"/>
        <tazSink id="141298276#3" weight="1.00"/>
        <tazSource id="141298276#4" weight="1.00"/>
        <tazSink id="141298276#4" weight="1.00"/>
        <tazSource id="167476854" weight="1.00"/>
        <tazSink id="167476854" weight="1.00"/>
        <tazSource id="167476855#0" weight="1.00"/>
        <tazSink id="167476855#0" weight="1.00"/>
        <tazSource id="167476855#1" weight="1.00"/>
        <tazSink id="167476855#1" weight="1.00"/>
        <tazSource id="16863384#0" weight="1.00"/>
        <tazSink id="16863384#0" weight="1.00"/>
        <tazSource id="16863384#1" weight="1.00"/>
        <tazSink id="16863384#1" weight="1.00"/>
        <tazSource id="16863384#2" weight="1.00"/>
        <tazSink id="16863384#2" weight="1.00"/>
        <tazSource id="16863384#3" weight="1.00"/>
        <tazSink id="16863384#3" weight="1.00"/>
        <tazSource id="692672175" weight="1.00"/>
        <tazSink id="692672175" weight="1.00"/>
        <tazSource id="702577176#0" weight="1.00"/>
        <tazSink id="702577176#0" weight="1.00"/>
        <tazSource id="702577176#2" weight="1.00"/>
        <tazSink id="702577176#2" weight="1.00"/>
        <tazSource id="702577180" weight="1.00"/>
        <tazSink id="702577180" weight="1.00"/>
        <tazSource id="702577185#5" weight="1.00"/>
        <tazSink id="702577185#5" weight="1.00"/>
        <tazSource id="702577185#6" weight="1.00"/>
        <tazSink id="702577185#6" weight="1.00"/>
        <tazSource id="702577185#7" weight="1.00"/>
        <tazSink id="702577185#7" weight="1.00"/>
        <tazSource id="776079735#0" weight="1.00"/>
        <tazSink id="776079735#0" weight="1.00"/>
        <tazSource id="776079735#2" weight="1.00"/>
        <tazSink id="776079735#2" weight="1.00"/>
    </taz>
</additional>
