<?xml version="1.0" encoding="UTF-8"?>

<!-- generated on 2024-01-06 17:20:34.758915 by randomTrips.py v1.16.0-0000000000
<configuration>
    <end value="100"/>
    <length value="True"/>
    <net-file value="map.net.xml"/>
    <route-file value="map.rou.xml"/>
</configuration>
-->

<!-- generated on 2024-01-06 17:20:34 by Eclipse SUMO duarouter Version 1.16.0
<configuration xmlns:xsi="http://www.w3.org/2001/XMLSchema-instance" xsi:noNamespaceSchemaLocation="http://sumo.dlr.de/xsd/duarouterConfiguration.xsd">

    <input>
        <net-file value="map.net.xml"/>
        <route-files value="trips.trips.xml"/>
    </input>

    <output>
        <output-file value="map.rou.xml"/>
        <alternatives-output value="NUL"/>
    </output>

    <time>
        <begin value="0"/>
        <end value="100"/>
    </time>

    <report>
        <no-warnings value="true"/>
        <ignore-errors value="true"/>
        <no-step-log value="true"/>
    </report>

</configuration>
-->

<routes xmlns:xsi="http://www.w3.org/2001/XMLSchema-instance" xsi:noNamespaceSchemaLocation="http://sumo.dlr.de/xsd/routes_file.xsd">
    <vehicle id="0" depart="0.00">
        <route edges="436792119#1 436792118#0 436792118#1 436792118#2 934466650 256917836#0 256917836#1 256917836#2 934466649 436791493#0 436791493#1 436791493#2 1143809352#0 1143809352#1 402537670#0 402537670#1 -402537670#1 -402537670#0 -1143809352#1"/>
    </vehicle>
    <vehicle id="1" depart="1.00">
        <route edges="-5636208#2 -5636208#1 -5636208#0 436942386#2 1051038541#0 1051038541#1 436942380#0 436942380#1 436942380#2 -436794671 -1088637809#1 -1088637809#0 -1088637808 -436794678 -436794670 -1078715157#1 -1078715157#0 436794681#0 436794681#1 436794681#2 -1078715155 -436794675#1 -436794675#0 -436794672#1 -436794672#0 533573787#0 533573787#1 329703992 1002525088#0 1002525088#1 282127136#0 282127136#1 282127136#2 282127136#3 909817906#0 909817906#1 909817906#2 533573779#0 533573779#1 533573779#2 436794680#0 436794680#1 436794680#2 533573781#0 533573781#1 5607328#0 5607328#1 5607328#2 5607328#3 1049318703#0 1049318703#1 1049318703#2 533573780#0 533573780#1 533573780#2 436791123#0 436791123#1 436791125#0 436791125#1 436791125#2 436791125#3 436791125#4 436791125#5 1014049681 256917834#0 256917834#1 256917834#2 1014049682#0 1014049682#1 1014049682#2 1014049682#3 1014049682#4 1014049682#5 5640924#0 5640924#1 5640924#2 -5640924#2 -5640924#1"/>
    </vehicle>
    <vehicle id="2" depart="2.00">
        <route edges="537091885#0 537091885#1 472156132 436942386#0 436942386#1 436942386#2 1051038541#0 1051038541#1 436942380#0 436942380#1 436942380#2 -436794671 -1088637809#1 -1088637809#0 -1088637808 -436794678 -436794670 -1078715157#1 -1078715157#0 436794681#0 436794681#1 436794681#2 -1078715155 -436794675#1 -436794675#0 -436794672#1 -436794672#0 533573787#0 533573787#1 329703992 1002525088#0 1002525088#1 282127136#0 282127136#1 282127136#2 282127136#3 909817906#0 909817906#1 909817906#2 533573779#0 533573779#1 533573779#2 436794680#0 436794680#1 436794680#2 533573781#0 533573781#1 5607328#0 5607328#1 5607328#2 5607328#3 1049318703#0 1049318703#1 1049318703#2 533573780#0 533573780#1 533573780#2"/>
    </vehicle>
    <vehicle id="3" depart="3.00">
        <route edges="5669184#0 5669184#1 5669184#2 436791119#0 436791119#1 436791119#2 436791116 1053856041 436791113#0 436791113#1 533573776#0 533573776#1 533573776#2 533573776#3 934465920#0 934465920#1 934465920#2 5614812#0 5614812#1 5614812#2 5614812#3 5614812#4 889439250#0 889439250#1 1002525089#0 1002525089#1 1002525089#2 889439249#0 889439249#1 436794672#0 436794672#1 436794675#0 436794675#1 1078715155 1078715158#0 1078715158#1 1078715158#2 1078715157#0 1078715157#1 436794670 436794678 1088637808 1088637809#0 1088637809#1 436794671 436794679#0 436794679#1 436794679#2 436794679#3 532215357#0 532215357#1 436794668#0 436794668#1 436794668#2 436794668#3 436794668#4 -436794668#4 -436794668#3 -436794668#2 -436794668#1 -436794668#0 -532215357#1 -532215357#0 -436794679#3"/>
    </vehicle>
    <vehicle id="4" depart="4.00">
        <route edges="1048412599 436942371#0 436942371#1 -1088637809#1 -1088637809#0 -1088637808 -436794678 -436794670 -1078715157#1 -1078715157#0 436794681#0 436794681#1 436794681#2 -1078715155 -436794675#1 -436794675#0 -436794672#1 -436794672#0 533573787#0 533573787#1 329703992 1002525088#0 1002525088#1 282127136#0 282127136#1 282127136#2 282127136#3 909817906#0 909817906#1 909817906#2 533573779#0 533573779#1 533573779#2 436794680#0 436794680#1 436794680#2 533573781#0 533573781#1 5607328#0 5607328#1 5607328#2 5607328#3 1049318703#0 1049318703#1 1049318703#2 533573780#0 533573780#1 533573780#2 436791123#0 436791123#1 436791125#0 436791125#1 436791125#2 436791125#3 436791125#4 436791125#5 1014049681 256917834#0 256917834#1 256917834#2 1014049682#0 1014049682#1 1014049682#2 1014049682#3 1014049682#4 1014049682#5 5640924#0 5640924#1 5640924#2 157628502#0 157628502#1 157628502#2 157628502#3 157628502#4 -157628502#4 -157628502#3 -157628502#2"/>
    </vehicle>
    <vehicle id="5" depart="5.00">
        <route edges="-5630444#11 -5630444#10 -5630444#9 -5630444#8 -5630444#7 -5630444#6 -5630444#5 -5630444#4 -5630444#3 -5630444#2 -5630444#1 -5630444#0 -5591077#1 -5591077#0 -1143809361#2 -1143809361#1 -1143809361#0 -1143809359 1143809358#0 1143809358#1 30031644 537091896 537091897#0 537091897#1 537091898 537091900#0 537091900#1 -436794672#1 -436794672#0 533573787#0 533573787#1 329703992"/>
    </vehicle>
    <vehicle id="6" depart="6.00">
        <route edges="-1143809361#2 -1143809361#1 -1143809361#0 -1143809359 1143809358#0 1143809358#1 30031644 537091896 537091897#0 537091897#1 537091898 537091900#0 537091900#1 472156131#0 472156131#1 537091895 777220833 537091893#0 537091893#1 537091893#2 537091893#3 537091892#0 537091892#1 537091891#0 537091891#1 537091891#2 537091890#0 537091890#1 537091890#2 537091890#3 537091890#4 537091890#5 537091889#0 537091889#1 5624529#0 5624529#1 5624529#2 -5624529#2 -5624529#1 -5624529#0"/>
    </vehicle>
    <vehicle id="7" depart="7.00">
        <route edges="436794678 1088637808 1088637809#0 1088637809#1 436942385#0 436942385#1 436942385#2 436942385#3 436942377#0 436942377#1 436942386#0 436942386#1 436942386#2 1051038541#0 1051038541#1 436942380#0 436942380#1 436942380#2 -436794671 -1088637809#1 -1088637809#0 -1088637808 -436794678 -436794670 -1078715157#1 -1078715157#0 436794681#0 436794681#1 436794681#2 -1078715155 -436794675#1 -436794675#0 -436794672#1 -436794672#0 533573787#0 533573787#1 329703992 1002525088#0 1002525088#1 282127136#0 282127136#1 282127136#2 282127136#3 909817906#0 909817906#1 909817906#2 533573779#0 533573779#1 533573779#2 436794680#0 436794680#1 436794680#2 533573781#0 533573781#1 5607328#0 5607328#1 5607328#2 5607328#3 1049318703#0 1049318703#1 1049318703#2 533573780#0 533573780#1 533573780#2 436791123#0 436791123#1 -934466641#2 -934466641#1 -934466641#0 436791121#0 436791121#1 436791115 436791112 436791114 436791117 436791122#0"/>
    </vehicle>
    <vehicle id="8" depart="8.00">
        <route edges="-5630444#12 -5630444#11 -5630444#10 -5630444#9 -5630444#8 -5630444#7 -5630444#6 -5630444#5 -5630444#4 -5630444#3 -5630444#2 -5630444#1 -5630444#0 872138141#0 872138141#1 872138141#2 872138141#3 872138141#4 872138141#5 1048412598 1048412599 436942371#0 436942371#1 436794671 436794679#0 436794679#1 436794679#2 436794679#3 532215357#0 532215357#1 436794668#0 436794668#1 436794668#2 436794668#3 436794668#4"/>
    </vehicle>
    <vehicle id="9" depart="9.00">
        <route edges="5603481#1 5603481#2 762550584#0 762550584#1 -762550584#1 -762550584#0 -5603481#2 -5603481#1 -5603481#0 934466649 436791493#0 436791493#1 436791493#2 402560701#0 402560701#1 402560701#2 402560701#3 537091904#0 537091904#1 5619424#0 5619424#1 5619424#2 5619424#3 5619424#4 5619424#5 5619424#6 5619424#7 5619424#8 402537657 723559140 537091903 402537658 1143809354 30031694#0 30031694#1 30031694#2 30031694#3 30031694#4 30031694#5 30031694#6 537091902#0 537091902#1 1143809358#0 1143809358#1 30031644 537091896 537091897#0 537091897#1 537091898 537091900#0 537091900#1 436794675#0 436794675#1 1078715155 1078715158#0 1078715158#1 1078715158#2 1078715157#0 -1088031718#2 -1088031718#1 -1088031718#0"/>
    </vehicle>
    <vehicle id="10" depart="10.00">
        <route edges="5594960#7 5594960#8 5594960#9 5594960#10 -5608313#10 -5608313#9 -5608313#8 -5608313#7 -5608313#6 -5608313#5 -5608313#4 -5608313#3 -5608313#2 -5608313#1 -5608313#0 -934466641#2 -934466641#1 -934466641#0 436791121#0 436791121#1 436791115 436791112 436791114 436791117 436791122#0 436791122#1 436791119#0 436791119#1 436791119#2 436791116 1053856041 436791113#0 436791113#1 533573776#0 533573776#1 533573776#2 533573776#3 934465920#0 934465920#1 934465920#2 5614812#0 5614812#1 5614812#2 5614812#3 5614812#4 889439250#0 889439250#1 1002525089#0 1002525089#1 1002525089#2 889439249#0 889439249#1 436794672#0 436794672#1 -537091900#1 -537091900#0 -537091898 -537091897#1 -537091897#0 -537091896 -30031644 1143809360#0 1143809360#1 -1143809359 1143809358#0 1143809358#1 30031644 537091896"/>
    </vehicle>
    <vehicle id="11" depart="11.00">
        <route edges="-663021917#4 -663021917#3 -663021917#2 -663021917#1 -663021917#0 -934466644#2 -934466644#1 -934466644#0 436791119#0 436791119#1 436791119#2 436791116 1053856041 436791113#0 436791113#1 533573776#0 533573776#1 533573776#2 533573776#3 934465920#0 934465920#1 934465920#2 5614812#0 5614812#1 5614812#2 5614812#3 5614812#4 -889439251 -5660964#10 -5660964#9 -5660964#8 -5660964#7 -5660964#6 -5660964#5 -5660964#4 -5660964#3 -5660964#2 -5591100#10 -5591100#9 -5591100#8 -5591100#7 -5591100#6"/>
    </vehicle>
    <vehicle id="12" depart="12.00">
        <route edges="778414513#1 778414513#2 778414513#3 533573786#0 533573786#1 533573786#2 533573786#3 533573786#4 533573786#5 -436794695#4 -436794695#3 -436794695#2 -436794695#1 -436794695#0 -436794696#1 -436794696#0 -436794701#3 -436794701#2 -436794701#1 -436794701#0 -533573781#1 -533573781#0 533573776#0 533573776#1 533573776#2 533573776#3 934465920#0 934465920#1 934465920#2 5614812#0 5614812#1 5614812#2 5614812#3 5614812#4 889439250#0 889439250#1 1002525089#0 1002525089#1"/>
    </vehicle>
    <vehicle id="13" depart="13.00">
        <route edges="-436794668#4 -436794668#3 -436794668#2 -436794668#1 -436794668#0 -532215357#1 -532215357#0 -436794679#3 -436794679#2 -436794679#1 -436794679#0 -436794671 436942385#0 436942385#1 436942385#2 436942385#3 436942377#0 436942377#1 -472156132 -436942373 -966303717#1 -966303717#0 -395215600 -436942376#1 -436942376#0 -436942372#1 -436942372#0 -436942364 -436942384#4 -436942384#3 -436942384#2 -436942384#1 -436942384#0 -436942367 -436942369#2"/>
    </vehicle>
    <vehicle id="14" depart="14.00">
        <route edges="5630444#7 5630444#8 5630444#9 5630444#10 5630444#11 5630444#12 5630444#13 5630444#14 -5630444#14 -5630444#13 -5630444#12 -5630444#11 -5630444#10 -5630444#9 -5630444#8 -5630444#7 -5630444#6 -5630444#5 -5630444#4 -5630444#3 -5630444#2 -5630444#1 -5630444#0 872138141#0 872138141#1 872138141#2 872138141#3 1088031717#1 1088031718#0 1088031718#1 1088031718#2 1078715157#1 436794670 436794678"/>
    </vehicle>
    <vehicle id="15" depart="15.00">
        <route edges="5594960#8 5594960#9 5594960#10 -5608313#10 -5608313#9 -5608313#8 -5608313#7 -5608313#6 -5608313#5 -5608313#4 -5608313#3 -5608313#2 -5608313#1 -5608313#0 -934466641#2 -934466641#1 -934466641#0 436791121#0 436791121#1 436791115 436791112 436791114 436791117 436791122#0 436791122#1 436791119#0 436791119#1 436791119#2 436791116 1053856041 436791113#0 436791113#1 533573776#0 533573776#1 533573776#2 533573776#3 934465920#0 934465920#1 934465920#2 -934465921 -934465919#1 -934465919#0 -223225595#11 -223225595#10 -223225595#9 -223225595#8 -223225595#7 -223225595#6 -223225595#5 -223225595#4 5591100#4 5591100#5 5591100#6"/>
    </vehicle>
    <vehicle id="16" depart="16.00">
        <route edges="30031694#5 30031694#6 537091902#0 537091902#1 1143809358#0 1143809358#1 30031644 537091896 537091897#0 537091897#1 537091898 537091900#0 537091900#1 -436794672#1 -436794672#0 533573787#0 533573787#1 329703992 -889439248 1002525089#0 1002525089#1 1002525089#2 889439249#0"/>
    </vehicle>
    <vehicle id="17" depart="17.00">
        <route edges="-872138141#3 -872138141#2 -872138141#1 -872138141#0 -5591077#1 -5591077#0 -1143809361#2 -1143809361#1 -1143809361#0 -1143809359 1143809358#0 1143809358#1 30031644 537091896 537091897#0 537091897#1 537091898 537091900#0 537091900#1 -436794672#1 -436794672#0 533573787#0 533573787#1 329703992 1002525088#0 1002525088#1 282127136#0 282127136#1 282127136#2 282127136#3 909817906#0 909817906#1 909817906#2 533573779#0 533573779#1 533573779#2 436794680#0 436794680#1 436794680#2 533573781#0 533573781#1 5607328#0 5607328#1 5607328#2 5607328#3 1049318703#0 1049318703#1 1049318703#2 533573780#0 533573780#1 533573780#2 436791123#0 436791123#1 436791125#0 436791125#1 436791125#2 436791125#3"/>
    </vehicle>
    <vehicle id="18" depart="18.00">
        <route edges="5619424#5 5619424#6 5619424#7 5619424#8 402537657 723559140 537091903 402537658 1143809354 30031694#0 30031694#1 30031694#2 30031694#3 30031694#4 30031694#5 30031694#6 537091902#0 537091902#1 1143809358#0 1143809358#1 30031644 537091896 537091897#0 537091897#1 537091898 537091900#0 537091900#1 436794675#0 436794675#1 1078715155 1078715158#0 1078715158#1 1078715158#2 1078715157#0 1078715157#1 436794670 436794678 1088637808 1088637809#0 1088637809#1 436942385#0 436942385#1 436942385#2 436942385#3 436942377#0 436942377#1 -472156132 -436942373 -966303717#1 -966303717#0 -395215600 -436942376#1 -436942376#0 -436942372#1 -436942372#0 -436942364 -436942384#4 -436942384#3 -436942384#2 -436942384#1 -436942384#0 -436942367 -436942369#2 -436942369#1 -436942369#0 436942369#0 436942369#1"/>
    </vehicle>
    <vehicle id="20" depart="20.00">
        <route edges="528165155 436942383#0 436942383#1 1048412597#0 1048412597#1 264834600#0 264834600#1 1048412598 1048412599 436942371#0 436942371#1 -1088637809#1 -1088637809#0 -1088637808 -436794678 -436794670 -1078715157#1 -1078715157#0 436794681#0 436794681#1 436794681#2 -1078715155 -436794675#1 -436794675#0 472156131#0 472156131#1 537091895 777220833 537091893#0 537091893#1 537091893#2 537091893#3 537091892#0 537091892#1 537091891#0 537091891#1 537091891#2 537091890#0 537091890#1 537091890#2 537091890#3 537091890#4 537091890#5 -28875481#5 -28875481#4 -28875481#3 -28875481#2"/>
    </vehicle>
    <vehicle id="21" depart="21.00">
        <route edges="-5630444#7 -5630444#6 -5630444#5 -5630444#4 -5630444#3 -5630444#2 -5630444#1 -5630444#0 -5591077#1 -5591077#0 -1143809361#2 -1143809361#1 -1143809361#0 -1143809359 1143809358#0 1143809358#1 30031644 537091896 537091897#0 537091897#1 537091898 537091900#0 537091900#1 -436794672#1 -436794672#0 533573787#0 533573787#1 329703992 1002525088#0 1002525088#1 282127136#0 282127136#1 282127136#2 282127136#3 909817906#0 909817906#1 909817906#2 533573779#0 533573779#1 533573779#2 436794680#0 436794680#1 436794680#2 533573781#0 533573781#1 5607328#0 5607328#1 5607328#2 5607328#3 1049318703#0 1049318703#1 1049318703#2 533573780#0 533573780#1 533573780#2 436791123#0 436791123#1 436791125#0 436791125#1 436791125#2 436791125#3 436791125#4 436791125#5 5691747#0 5691747#1 5691747#2 5691747#3 5691747#4 -778414511#5 -778414511#4"/>
    </vehicle>
    <vehicle id="22" depart="22.00">
        <route edges="-402537670#2 -402537670#1 -402537670#0 -1143809352#1 -1143809352#0 436791497#0 436791497#1 436791497#2 402560705#0 402560705#1 436791496#0 436791496#1 436791492#0 436791492#1 436791491#0 436791491#1 436791498#0 436791498#1 -533573781#1 -533573781#0 533573776#0 533573776#1 533573776#2 533573776#3 5658805#0 5658805#1 5658805#2 5658805#3 5658805#4 -5658805#4 -5658805#3 -5658805#2 -5658805#1"/>
    </vehicle>
    <vehicle id="23" depart="23.00">
        <route edges="-436794668#4 -436794668#3 -436794668#2 -436794668#1 -436794668#0 -532215357#1 -532215357#0 -436794679#3 -436794679#2 -436794679#1 -436794679#0 -436794671 -1088637809#1 -1088637809#0 -1088637808 -436794678 -436794670 -1078715157#1 -1078715157#0 436794681#0 436794681#1 436794681#2 -1078715155 -436794675#1 -436794675#0 -537091900#1 -537091900#0 -537091898 -537091897#1 -537091897#0 -537091896 -30031644 1143809360#0 1143809360#1 30031703#0 30031703#1 30031703#2 30031703#3 30031703#4 30031703#5 30031703#6 537091901#0 537091901#1 537091901#2 537091901#3 1143809353 -402537658 -537091903 -723559140"/>
    </vehicle>
    <vehicle id="24" depart="24.00">
        <route edges="436792114#1 436791495#0 436791495#1 1084112469#0 1084112469#1"/>
    </vehicle>
    <vehicle id="25" depart="25.00">
        <route edges="-778414511#7 -778414511#6 -778414511#5 -778414511#4 -778414511#3 -5608313#5 -5608313#4 -5608313#3 -5608313#2 -5608313#1 -5608313#0 -934466641#2 -934466641#1 -934466641#0 436791121#0 436791121#1 436791115 436791112 436791114 436791117 436791122#0 436791122#1 436791119#0 436791119#1 436791119#2 436791116 1053856041 436791113#0 436791113#1 533573776#0 533573776#1 533573776#2 533573776#3 934465920#0 934465920#1 934465920#2 5614812#0 5614812#1 5614812#2 5614812#3 5614812#4 889439250#0 889439250#1 1002525089#0 1002525089#1 1002525089#2 889439249#0 889439249#1 436794672#0 436794672#1 -537091900#1 -537091900#0 -537091898 -537091897#1 -537091897#0 -537091896 -30031644 1143809360#0 1143809360#1 1143809361#0 1143809361#1 1143809361#2 5591077#0 5591077#1 5630444#0 5630444#1 5630444#2 5630444#3 5630444#4 5630444#5 5630444#6 5630444#7 5630444#8 5630444#9 5630444#10 5630444#11 5630444#12 5630444#13 5630444#14 -5630444#14 -5630444#13"/>
    </vehicle>
    <vehicle id="26" depart="26.00">
        <route edges="-5636208#2 -5636208#1 -5636208#0 436942386#2 1051038541#0 1051038541#1 436942380#0 436942380#1 436942380#2 -436794671 -1088637809#1 -1088637809#0 -1088637808 -436794678 -436794670 -1078715157#1 -1078715157#0 436794681#0 436794681#1 436794681#2 -1078715155 -436794675#1 -436794675#0 -436794672#1 -436794672#0 533573787#0 533573787#1 329703992 1002525088#0 1002525088#1 282127136#0 282127136#1 282127136#2 282127136#3 909817906#0 909817906#1 909817906#2 533573779#0 533573779#1 533573779#2 436794680#0 436794680#1 436794680#2 533573781#0 533573781#1 436794701#0 436794701#1 436794701#2 436794701#3 436794696#0 5591429#0 5591429#1 5591429#2 5591429#3 5591429#4 5591429#5 5591429#6 5591429#7 5591429#8 5591429#9 778414509#1 778414510#0 778414510#1"/>
    </vehicle>
    <vehicle id="27" depart="27.00">
        <route edges="436794672#0 436794672#1 436794675#0 436794675#1 1078715155 1078715158#0 1078715158#1 1078715158#2 436794681#0"/>
    </vehicle>
    <vehicle id="28" depart="28.00">
        <route edges="-5591100#2 -5591100#1 -5591100#0 5591100#0 5591100#1 5591100#2 5591100#3 5591100#4 5591100#5 5591100#6"/>
    </vehicle>
    <vehicle id="29" depart="29.00">
        <route edges="-544548410#3 872138142#0 872138142#1 1088031717#0 1088031717#1 1088031718#0 1088031718#1 1088031718#2 -1078715157#0 436794681#0 436794681#1 436794681#2 -1078715155 -436794675#1 -436794675#0 -436794672#1 -436794672#0 533573787#0 533573787#1 329703992 1002525088#0 1002525088#1 282127136#0 282127136#1 282127136#2 282127136#3 909817906#0 909817906#1 909817906#2 533573779#0 533573779#1 533573779#2 436794680#0 436794680#1 436794680#2 533573781#0 533573781#1 5607328#0 5607328#1 5607328#2 5607328#3 1049318703#0 1049318703#1 1049318703#2 533573780#0 533573780#1 533573780#2 436791123#0 436791123#1 436791125#0 436791125#1 436791125#2 436791125#3 436791125#4 436791125#5 1014049681 256917834#0 256917834#1 256917834#2 1014049682#0 1014049682#1 1014049682#2 1014049682#3 1014049682#4 1014049682#5 5640924#0 5640924#1 5640924#2 157628502#0 157628502#1 157628502#2 157628502#3 157628502#4 157628502#5 157628502#6 157628502#7 157628502#8 157628502#9 157628502#10 1125465309#0 1125465309#1"/>
    </vehicle>
    <vehicle id="30" depart="30.00">
        <route edges="934465920#1 934465920#2 -934465921 909817906#0 909817906#1 909817906#2 533573779#0 533573779#1 533573779#2 436794680#0 436794680#1 436794680#2 256917837#0 256917837#1 256917837#2 436792112#0 436792112#1 -934466645#1 -934466645#0 -521443955#3 -521443955#2 -521443955#1 -521443955#0 521443955#0"/>
    </vehicle>
    <vehicle id="32" depart="32.00">
        <route edges="5630444#13 5630444#14 -5630444#14 -5630444#13 -5630444#12 -5630444#11 -5630444#10 -5630444#9 -5630444#8 -5630444#7 -5630444#6 -5630444#5 -5630444#4 -5630444#3 -5630444#2 -5630444#1 -5630444#0 -5591077#1 -5591077#0 -1143809361#2 -1143809361#1 -1143809361#0 -1143809359 1143809358#0 1143809358#1 30031644 537091896 537091897#0 537091897#1 537091898 537091900#0 537091900#1 472156131#0 472156131#1 537091895 777220833 537091893#0 537091893#1 537091893#2 537091893#3 537091892#0 537091892#1 537091891#0 537091891#1 537091891#2 537091890#0 537091890#1 537091890#2 537091890#3 537091890#4 537091890#5 537091889#0 537091889#1 5624529#0 5624529#1"/>
    </vehicle>
    <vehicle id="33" depart="33.00">
        <route edges="-5636208#1 -5636208#0 436942386#2 1051038541#0 1051038541#1 436942380#0 436942380#1 436942380#2 -436794671 -1088637809#1 -1088637809#0 -1088637808 -436794678 -436794670 -1078715157#1 -1078715157#0 436794681#0 436794681#1 436794681#2 -1078715155 -436794675#1 -436794675#0 -436794672#1 -436794672#0 533573787#0 533573787#1 329703992 1002525088#0 1002525088#1 282127136#0 282127136#1 282127136#2 282127136#3 909817906#0 909817906#1 909817906#2 533573779#0 533573779#1 533573779#2 436794680#0 436794680#1 436794680#2 533573781#0 533573781#1 5607328#0 5607328#1 5607328#2 5607328#3 1049318703#0 1049318703#1 1049318703#2 533573780#0 533573780#1 533573780#2 436791123#0 436791123#1 436791125#0 436791125#1 436791125#2 436791125#3 436791125#4 436791125#5 1014049681 256917834#0 256917834#1 256917834#2 1014049682#0 1014049682#1 1014049682#2 1014049682#3 1014049682#4 1014049682#5 5640924#0 5640924#1 5640924#2 157628502#0 157628502#1 157628502#2 157628502#3 157628502#4 157628502#5 157628502#6 157628502#7 157628502#8 157628502#9 157628502#10 1125465309#0 1125465309#1 1125465309#2 -1125465309#2 -1125465309#1 -1125465309#0 -157628502#10 -157628502#9 -157628502#8 -157628502#7 -157628502#6"/>
    </vehicle>
    <vehicle id="34" depart="34.00">
        <route edges="-5662409#5 -5662409#4 -5662409#3 -5662409#2 -5662409#1 -5662409#0 436789324 436789320 -436789320 395489956 934492281#0 934492281#1 934492281#2 402560702 723559144 723559141 436791124#0 436791124#1 436791124#2 436791111 436791120#0 436791120#1 436791121#0 436791121#1 436791115 436791112 436791114 436791117 436791122#0 436791122#1 436791119#0 436791119#1 436791119#2 436791116 1053856041 436791113#0 436791113#1 533573776#0 533573776#1 533573776#2 533573776#3 934465920#0 934465920#1 934465920#2 -934465921 -934465919#1 -934465919#0 -223225595#11 -223225595#10 -223225595#9 -223225595#8 -5670078#11 -5670078#10 -5670078#9 -5670078#8"/>
    </vehicle>
    <vehicle id="35" depart="35.00">
        <route edges="-5624529#0 -537091889#1 -537091889#0 -537091890#5 -537091890#4 -537091890#3 -537091890#2 -537091890#1 -537091890#0 -537091891#2 -537091891#1 -537091891#0 -537091892#1 -537091892#0 -537091893#3 -537091893#2 -537091893#1 -537091893#0 -777220833 -537091895 -472156131#1 -472156131#0 -436794672#1 -436794672#0 533573787#0 533573787#1 329703992 1002525088#0 1002525088#1 282127136#0 282127136#1 282127136#2 282127136#3 909817906#0 909817906#1 909817906#2 533573779#0 533573779#1 533573779#2 436794680#0 436794680#1 436794680#2 533573781#0 533573781#1 436794701#0 436794701#1 436794701#2 436794701#3 436794696#0 5591429#0 5591429#1 5591429#2 5591429#3 5591429#4 5591429#5 5591429#6 5591429#7 5591429#8 5591429#9 778414509#1 778414509#2 778414511#0 778414511#1"/>
    </vehicle>
    <vehicle id="37" depart="37.00">
        <route edges="436794681#0 436794681#1 436794681#2 -1078715155 -436794675#1 -436794675#0 -436794672#1 -436794672#0 533573787#0 533573787#1 329703992 1002525088#0 1002525088#1 282127136#0 282127136#1 282127136#2 282127136#3 909817906#0 909817906#1 909817906#2 533573779#0 533573779#1 533573779#2 436794680#0 436794680#1 436794680#2 533573781#0 533573781#1 5607328#0 5607328#1 5607328#2 5607328#3 1049318703#0 1049318703#1 1049318703#2 533573780#0 533573780#1 533573780#2 436791123#0 436791123#1 436791125#0 436791125#1 436791125#2 436791125#3 436791125#4 436791125#5 1014049681 256917834#0 256917834#1 256917834#2 1014049682#0 1014049682#1 1014049682#2 1014049682#3 1014049682#4 1014049682#5 5640924#0 5640924#1 5640924#2 157628502#0 157628502#1 157628502#2 157628502#3 157628502#4 157628502#5 157628502#6"/>
    </vehicle>
    <vehicle id="38" depart="38.00">
        <route edges="656385563#0 656385563#1 656385563#2 656385563#3 656385563#4 656385563#5 656385563#6 656385563#7 656385563#8 537091885#0 537091885#1 472156132 436942386#0 436942386#1 436942386#2 1051038541#0 1051038541#1 436942380#0 436942380#1 436942380#2 -436794671 -1088637809#1 -1088637809#0 -1088637808 -436794678 -436794670 -1078715157#1 -1078715157#0 436794681#0 436794681#1 436794681#2 -1078715155 -436794675#1 -436794675#0 -436794672#1 -436794672#0 533573787#0 533573787#1 329703992 1002525088#0 1002525088#1 -5660964#10 -5660964#9 -5660964#8 -5660964#7 -5660964#6 -5660964#5 -5660964#4 -5660964#3 -5660964#2 -5660964#1 -5660964#0 -1143809349#1 -1143809349#0 30031694#0"/>
    </vehicle>
    <vehicle id="39" depart="39.00">
        <route edges="-5636208#2 -5636208#1 -5636208#0 436942386#2 1051038541#0 1051038541#1 436942380#0 436942380#1 436942380#2 -436794671 -1088637809#1 -1088637809#0 -1088637808 -436794678 -436794670 -1078715157#1 -1078715157#0 436794681#0 436794681#1 436794681#2 -1078715155 -436794675#1 -436794675#0 -436794672#1 -436794672#0 533573787#0 533573787#1 329703992 1002525088#0 1002525088#1 -5660964#10 -5660964#9 -5660964#8"/>
    </vehicle>
    <vehicle id="40" depart="40.00">
        <route edges="305490066#0 305490066#1 305490066#2 1019787160#0 1019787160#1 -1019787160#1 -1019787160#0 -305490066#2 -305490066#1 -305490066#0 -1019787159#1 -1019787159#0 256917836#0 256917836#1 256917836#2 934466649 436791493#0 436791493#1 436791493#2 402560701#0 402560701#1 402560701#2 402560701#3 537091904#0 537091904#1 5619424#0 5619424#1 5619424#2 5619424#3 5619424#4 5619424#5 5619424#6 5619424#7 5619424#8 402537657 723559140 537091903 402537658 1143809354 1143809349#0 1143809349#1 5660964#0 5660964#1 5660964#2 5660964#3 5660964#4 5660964#5 5660964#6 -5670078#16 -5670078#15 -5670078#14 -5670078#13"/>
    </vehicle>
    <vehicle id="41" depart="41.00">
        <route edges="402537666#6 402537666#7 -402537666#7 -402537666#6 -402537666#5 -402537666#4 -402537666#3 -402537666#2 -402537666#1 -402537666#0 -536925040#2 -536925040#1 -536925040#0 -436794695#4 -436794695#3 -436794695#2 -436794695#1 -436794695#0 -436794696#1 5591429#0 5591429#1 5591429#2 5591429#3 5591429#4 5591429#5 5591429#6 5591429#7 5591429#8 5591429#9 778414509#1 778414509#2 778414511#0 778414511#1 778414511#2 778414511#3 778414511#4 778414511#5 5691747#5 5691747#6"/>
    </vehicle>
    <vehicle id="42" depart="42.00">
        <route edges="1002525089#0 1002525089#1 1002525089#2 889439249#0 889439249#1 436794672#0 436794672#1 436794675#0 436794675#1 1078715155 1078715158#0 1078715158#1 1078715158#2 1078715157#0 1078715157#1 436794670 436794678 1088637808 1088637809#0 1088637809#1 436942385#0 436942385#1 436942385#2 436942385#3 436942377#0 436942377#1 436942386#0 436942386#1 5636208#0 5636208#1 5636208#2 -5636208#2 -5636208#1"/>
    </vehicle>
    <vehicle id="43" depart="43.00">
        <route edges="965750302#5 965750302#6 -965750302#6 -965750302#5 -965750302#4 -965750302#3 -965750302#2 -965750302#1 -965750302#0 -1096226862#2 -1096226862#1 -1096226862#0 -909486474#2 -909486474#1 -909486474#0 436942369#0 436942369#1 436942369#2 436942367 436942384#0 436942384#1 436942384#2 436942384#3 436942384#4 436942364 436942372#0 436942372#1 436942376#0 436942376#1 395215600 966303717#0 966303717#1 436942373 472156132 436942386#0 436942386#1 436942386#2 1051038541#0 1051038541#1 436942380#0 436942380#1 436942380#2 -436794671 -1088637809#1 -1088637809#0 -1088637808 -436794678 -436794670 -1078715157#1 -1078715157#0 436794681#0 436794681#1 436794681#2 -1078715155 -436794675#1 -436794675#0 -436794672#1 -436794672#0 533573787#0 533573787#1 329703992 1002525088#0 1002525088#1 282127136#0 282127136#1 282127136#2 282127136#3 909817906#0 909817906#1 909817906#2 533573779#0 533573779#1 533573779#2 436794680#0 436794680#1 436794680#2 533573781#0 533573781#1 5607328#0 5607328#1 5607328#2 5607328#3 1049318703#0 1049318703#1 1049318703#2 533573780#0 533573780#1 533573780#2 436791123#0 436791123#1 436791125#0 436791125#1 436791125#2 436791125#3 436791125#4 436791125#5 1014049681 723559145 436790496 1070425356 436789324 436789320 -436789320 395489956"/>
    </vehicle>
    <vehicle id="44" depart="44.00">
        <route edges="-436794668#4 -436794668#3 -436794668#2 -436794668#1 -436794668#0 -532215357#1 -532215357#0 -436794679#3 -436794679#2 -436794679#1 -436794679#0 -436794671 -1088637809#1 -1088637809#0 -1088637808 -436794678 -436794670 -1078715157#1 -1078715157#0 436794681#0 436794681#1 436794681#2 -1078715155 -436794675#1 -436794675#0 472156131#0 472156131#1 537091895 777220833 537091893#0 537091893#1 537091893#2 537091893#3 537091892#0 537091892#1 537091891#0 537091891#1 537091891#2 537091890#0 537091890#1 537091890#2 537091890#3 537091890#4 537091890#5 -28875481#5 -28875481#4"/>
    </vehicle>
    <vehicle id="46" depart="46.00">