<?xml version="1.0" encoding="UTF-8"?>
<configuration xmlns:xsi="http://www.w3.org/2001/XMLSchema-instance" xsi:noNamespaceSchemaLocation="http://sumo.dlr.de/xsd/polyconvertConfiguration.xsd">
    <input>
        <!-- You can customize your own path and file name -->
        <net-file value="map.net.xml"/>
        <route-files value="map.rou.xml"/>
    </input>
    <time>
        <begin value="0"/>
        <end value="1000"/>
    </time>
    <gui_only>
        <delay value="100"/>
    </gui_only>
</configuration>